120

C         21.61860       -9.67010        4.29080
C         20.72680      -10.36940        3.45350
C         21.16580      -11.19760        2.42390
C         22.52800      -11.36750        2.18160
C         23.43740      -10.69930        2.99680
C         22.98400       -9.87200        4.02210
C         21.57860       -6.68010        2.60740
C         20.66970       -5.61380        2.65880
C         19.66440       -5.47850        1.70140
C         19.53430       -6.42780        0.68890
C         20.42100       -7.50360        0.63140
C         21.44070       -7.61820        1.57340
C         24.22620       -6.72290        3.36700
C         24.66350       -6.26120        2.11740
C         26.02180       -6.18760        1.81160
C         26.96860       -6.58300        2.75520
C         26.55470       -7.04560        4.00590
C         25.19840       -7.10770        4.30140
C         22.06010      -10.78680        7.03330
C         23.46340      -10.83080        7.14030
C         24.08870      -12.07030        6.98750
H         25.17300      -12.14780        7.07090
C         23.35270      -13.21430        6.70700
H         23.85920      -14.17500        6.59210
C         21.97780      -13.12740        6.52190
H         21.42500      -14.02610        6.24710
C         21.30000      -11.91580        6.66890
C         21.26110      -10.42790        9.60760
H         20.99250      -11.41540        9.21690
H         20.67750      -10.22500       10.51460
H         22.32380      -10.48020        9.88880
C         21.05450       -9.32210        8.59560
C         20.54720       -8.12890        9.08710
H         20.24190       -8.13380       10.13200
C         20.58350       -6.85270        8.47340
C         20.17290       -5.70700        9.37240
H         20.48430       -4.72760        8.99300
H         20.57640       -5.84710       10.38470
H         19.07410       -5.71090        9.45370
C         21.16630       -5.31130        6.78830
C         22.43690       -4.75680        7.03470
C         22.64510       -3.41110        6.72410
H         23.61830       -2.95630        6.91370
C         21.63130       -2.64140        6.17190
H         21.80280       -1.58700        5.94430
C         20.40620       -3.22640        5.87220
H         19.63880       -2.61290        5.40190
C         20.14660       -4.57250        6.14810
B         22.69810       -6.85780        3.71250
N         19.31180       -8.50880        5.44190
N         21.40600       -9.53500        7.30800
N         20.94120       -6.66110        7.22090
O         22.32510       -7.13240        4.98280
Re        20.96890       -8.27980        5.77250
C         18.04440       -8.53620        4.90430
C         17.83280       -8.05750        3.60420
C         16.97830       -9.04050        5.65890
C         16.54950       -8.07410        3.07020
H         18.68420       -7.68120        3.03300
C         15.69860       -9.05070        5.11360
H         17.17290       -9.40490        6.66880
C         15.48090       -8.56600        3.82220
H         16.38500       -7.69960        2.05770
H         14.86270       -9.43750        5.70080
H         14.47380       -8.57440        3.39970
H         26.34400       -5.82560        0.83420
H         28.03240       -6.53170        2.51650
H         24.87110       -7.46140        5.27850
H         27.29300       -7.35710        4.74650
H         23.73450       -9.36850        4.62700
H         24.51080      -10.81270        2.83650
H         22.87410      -12.01250        1.37270
H         20.43070      -11.70840        1.79890
H         19.65070      -10.26520        3.59090
H         18.97340       -4.63610        1.74840
H         18.74150       -6.33010       -0.05470
H         20.31920       -8.25680       -0.15100
H         22.12660       -8.46620        1.52150
H         20.75560       -4.87460        3.45820
H         23.92520       -5.95960        1.37200
C         19.80450      -11.82300        6.37820
C         18.90890      -11.84330        7.62540
C         19.32960      -12.88150        5.37840
H         19.64810      -10.84890        5.89720
H         19.01370      -10.92830        8.22930
H         17.85020      -11.91070        7.31960
H         19.12820      -12.71520        8.26770
H         19.99750      -12.93000        4.50380
H         19.26990      -13.88630        5.83330
H         18.31890      -12.62110        5.02080
C         24.29160       -9.56000        7.33050
C         25.69640       -9.67370        6.72960
C         24.39390       -9.08280        8.78520
H         23.77480       -8.75960        6.77250
H         25.66880      -10.03350        5.68850
H         26.18320       -8.68380        6.73540
H         26.33910      -10.35250        7.31560
H         23.43530       -8.69970        9.16580
H         24.73920       -9.89830        9.44550
H         25.12150       -8.25660        8.85870
C         23.57230       -5.58750        7.62040
C         23.60660       -5.52780        9.15400
C         24.93930       -5.18280        7.05870
H         23.39040       -6.63190        7.32240
H         22.74130       -6.03130        9.60930
H         24.51460       -6.02310        9.53830
H         23.61750       -4.47970        9.50220
H         24.90960       -5.06430        5.96530
H         25.30050       -4.23880        7.50250
H         25.68650       -5.95990        7.29500
C         18.83600       -5.21100        5.68730
C         18.01360       -4.32640        4.74730
C         17.92540       -5.70900        6.81790
H         19.13250       -6.08910        5.09210
H         18.61680       -3.92330        3.91970
H         17.20160       -4.92710        4.30440
H         17.55210       -3.47770        5.28260
H         18.35950       -6.56250        7.35610
H         17.71600       -4.89960        7.53910
H         16.96480       -6.05120        6.39820
